FN Clarivate Analytics Web of Science
VR 1.0
PT J
AU Mishra, N
   Srivastava, AP
   Esmaeili, N
   Hu, WJ
   Shen, GX
AF Mishra, Neelam
   Srivastava, Anurag P.
   Esmaeili, Nardana
   Hu, Wenjun
   Shen, Guoxin
TI Overexpression of the rice gene OsSIZ1 in Arabidopsis improves drought-,
   heat-, and salt-tolerance simultaneously
SO PLOS ONE
LA English
DT Article
ID SUMO E3 LIGASE; ABIOTIC STRESS TOLERANCE; SALICYLIC-ACID; PROTEIN
   MODIFICATION; PLANT DEVELOPMENT; WATER-STRESS; SIZ1; SUMOYLATION;
   RESPONSES; PHOSPHATE
AB Sumoylation is one of the post translational modifications, which affects cellular processes in plants through conjugation of small ubiquitin like modifier (SUMO) to target substrate proteins. Response to various abiotic environmental stresses is one of the major cellular functions regulated by SUMO conjugation. SIZ1 is a SUMO E3 ligase, facilitating a vital step in the sumoylation pathway. In this report, it is demonstrated that over-expression of the rice gene OsSIZ1 in Arabidopsis leads to increased tolerance to multiple abiotic stresses. For example, OsSIZ1-overexpressing plants exhibited enhanced tolerance to salt, drought, and heat stresses, and generated greater seed yields under a variety of stress conditions. Furthermore, OsSIZ1-overexpressing plants were able to exclude sodium ions more efficiently when grown in saline soils and accumulate higher potassium ions as compared to wild-type plants. Further analysis revealed that OsSIZ1-overexpressing plants expressed higher transcript levels of P5CS, a gene involved in the biosynthesis of proline, under both salt and drought stress conditions. Therefore, proline here is acting as an osmoprotectant to alleviate damages caused by drought and salt stresses. These results demonstrate that the rice gene OsSIZ1 has a great potential to be used for improving crop's tolerance to several abiotic stresses.
C1 [Mishra, Neelam; Hu, Wenjun; Shen, Guoxin] Zhejiang Acad Agr Sci, Hangzhou, Zhejiang, Peoples R China.
   [Mishra, Neelam; Esmaeili, Nardana] Texas Tech Univ, Dept Biol Sci, Lubbock, TX 79409 USA.
   [Mishra, Neelam] St Josephs Coll, Dept Bot, Bangalore, Karnataka, India.
   [Srivastava, Anurag P.] Texas Tech Univ, Dept Chem & Biochem, Lubbock, TX 79409 USA.
RP Shen, GX (reprint author), Zhejiang Acad Agr Sci, Hangzhou, Zhejiang, Peoples R China.
EM guoxin.shen@ttu.edu
FU Ogallala Aquifer Program; Texas State Support Committee; Cotton
   Incorporated; National Key R & D Program for Crop Breeding
   [2016YFD0100306-4]; National Natural Science Foundation of China
   [31771846, 31571718]
FX This work was supported in part by grants from Ogallala Aquifer Program,
   Texas State Support Committee, and Cotton Incorporated. This work is
   also partially supported by grants from National Key R & D Program for
   Crop Breeding (2016YFD0100306-4 to G.S.), and the National Natural
   Science Foundation of China (31771846 and 31571718 to G.S.). The funders
   had no role in study design, data collection and analysis, decision to
   publish, or preparation of the manuscript.
CR Abebe T, 2003, PLANT PHYSIOL, V131, P1748, DOI [10.1104/pp.102.003616, 10.1140/pp.102.003616]
   Antoni R, 2011, CURR OPIN PLANT BIOL, V14, P547, DOI 10.1016/j.pbi.2011.06.004
   BATES LS, 1973, PLANT SOIL, V39, P205, DOI 10.1007/BF00018060
   Cai B, 2016, J INTEGR PLANT BIOL, V59, P2
   Castro PH, 2016, PLANT MOL BIOL, V92, P143, DOI 10.1007/s11103-016-0500-9
   Catala R, 2007, PLANT CELL, V19, P2952, DOI 10.1105/tpc.106.049981
   Chen CC, 2011, PLANT SIGNAL BEHAV, V6, P1428, DOI 10.4161/psb.6.10.16933
   Chen CC, 2011, PLANT PHYSIOL, V156, P2225, DOI 10.1104/pp.111.178996
   CHURCH GM, 1984, P NATL ACAD SCI-BIOL, V81, P1991, DOI 10.1073/pnas.81.7.1991
   Clough SJ, 1998, PLANT J, V16, P735, DOI 10.1046/j.1365-313x.1998.00343.x
   Colby T, 2006, PLANT PHYSIOL, V142, P318, DOI 10.1104/pp.106.085415
   Conti L, 2008, PLANT CELL, V20, P2894, DOI 10.1105/tpc.108.058669
   Gill SS, 2010, PLANT PHYSIOL BIOCH, V48, P909, DOI 10.1016/j.plaphy.2010.08.016
   Hasanuzzaman M, 2013, INT J MOL SCI, V14, P9643, DOI 10.3390/ijms14059643
   Hasegawa PM, 2000, ANNU REV PLANT PHYS, V51, P463, DOI 10.1146/annurev.arplant.51.1.463
   HEATH RL, 1968, ARCH BIOCHEM BIOPHYS, V125, P189, DOI 10.1016/0003-9861(68)90654-1
   Hema R, 2014, PLOS ONE, V9, DOI 10.1371/journal.pone.0099110
   Hermkes R, 2011, PLANTA, V233, P63, DOI 10.1007/s00425-010-1281-z
   Hong YB, 2016, FRONT PLANT SCI, V7, DOI 10.3389/fpls.2016.00004
   Hu RB, 2014, PLANT PHYSIOL, V164, P721, DOI 10.1104/pp.113.233684
   Huang LX, 2009, PLANT J, V60, P666, DOI 10.1111/j.1365-313X.2009.03992.x
   Ishida T, 2009, PLANT CELL, V21, P2284, DOI 10.1105/tpc.109.068072
   Jin JB, 2008, PLANT J, V53, P530, DOI 10.1111/j.1365-313X.2007.03359.x
   Johnson ES, 2004, ANNU REV BIOCHEM, V73, P355, DOI 10.1146/annurev.biochem.73.011303.074118
   Joseph E. A., 2015, U J AGR RES, V3, P15, DOI DOI 10.13189/ujar.2015.030104
   Kaur G, 2015, BIOL PLANTARUM, V59, P609, DOI 10.1007/s10535-015-0549-3
   KOHL DH, 1990, PLANT PHYSIOL, V94, P1258, DOI 10.1104/pp.94.3.1258
   Krasensky J, 2012, J EXP BOT, V63, P1593, DOI 10.1093/jxb/err460
   Kurepa J, 2003, J BIOL CHEM, V278, P6862, DOI 10.1074/jbc.M209694200
   Lee J, 2007, PLANT J, V49, P79, DOI 10.1111/j.1365-313X.2006.02947.x
   Li ZG, 2013, PLANT BIOTECHNOL J, V11, P432, DOI 10.1111/pbi.12030
   Lin WY, 2009, J EXP BOT, V60, P1427, DOI 10.1093/jxb/ern303
   Liu F, 2015, BMC PLANT BIOL, V15, DOI 10.1186/s12870-015-0613-3
   Lois LM, 2003, PLANT CELL, V15, P1347, DOI 10.1105/tpc.009902
   Low PS, 1985, TRANSPORT PROCESSES, P469
   Lois LM, 2010, BIOCHEM SOC T, V38, P60, DOI 10.1042/BST0380060
   Mishra N, 2017, PLANT CELL PHYSIOL, V58, P735, DOI 10.1093/pcp/pcx032
   Mittler R, 2006, TRENDS PLANT SCI, V11, P15, DOI 10.1016/j.tplants.2005.11.002
   Miura K, 2005, P NATL ACAD SCI USA, V102, P7760, DOI 10.1073/pnas.050078102
   Miura K, 2014, PLANT BIOTECHNOLOGY, V1, P1
   Miura K, 2007, CURR OPIN PLANT BIOL, V10, P495, DOI 10.1016/j.pbi.2007.07.002
   Miura K, 2007, PLANT CELL, V19, P1403, DOI 10.1105/tpc.106.048397
   Miura K, 2010, TRENDS CELL BIOL, V20, P223, DOI 10.1016/j.tcb.2010.01.007
   Miura K, 2010, PLANT CELL PHYSIOL, V51, P103, DOI 10.1093/pcp/pcp171
   Miura K, 2009, P NATL ACAD SCI USA, V106, P5418, DOI 10.1073/pnas.0811088106
   MURASHIGE T, 1962, PHYSIOL PLANTARUM, V15, P473, DOI 10.1111/j.1399-3054.1962.tb08052.x
   Murtas G, 2003, PLANT CELL, V15, P2308, DOI 10.1105/tpc.015487
   Park BS, 2011, NAT COMMUN, V2, DOI 10.1038/ncomms1408
   Park HC, 2010, PLANT CELL ENVIRON, V33, P1923, DOI 10.1111/j.1365-3040.2010.02195.x
   Paterson AH, 1993, PLANT MOL BIOL REP, V11, P122
   Pena R. de la, 2007, Journal of SAT Agricultural Research, V4, P1
   Pichler Andrea, 2017, BioMolecular Concepts, V8, P13, DOI 10.1515/bmc-2016-0030
   PORRA RJ, 1989, BIOCHIM BIOPHYS ACTA, V975, P384, DOI 10.1016/S0005-2728(89)80347-0
   Prabakaran S, 2012, WIRES SYST BIOL MED, V4, P565, DOI 10.1002/wsbm.1185
   Roden J, 2004, MOL PLANT MICROBE IN, V17, P633, DOI 10.1094/MPMI.2004.17.6.633
   Sakuraba Y, 2014, MOL PLANT, V7, P1288, DOI 10.1093/mp/ssu045
   Saracco SA, 2007, PLANT PHYSIOL, V145, P119, DOI 10.1104/pp.107.102285
   Shao HB, 2015, FRONT PLANT SCI, V6, DOI 10.3389/fpls.2015.00902
   Sharma P, 2012, J BOT, V2012, P26, DOI [10.1155/2012/217037, DOI 10.1155/2012/217037, 10.1155/2012/872875]
   Silva-Correia J, 2014, PLANT METHODS, V10, DOI 10.1186/1746-4811-10-7
   Solfanelli C, 2006, PLANT PHYSIOL, V140, P637, DOI 10.1104/pp.105.072579
   Tan BC, 2003, PLANT J, V35, P44, DOI 10.1046/j.1365-313X.2003.01786.x
   van der Weele CM, 2000, J EXP BOT, V51, P1555, DOI 10.1093/jexbot/51.350.1555
   Wang B.S., 1995, PLANT PHYSL COMMUN, V31, P50
   Wang HD, 2015, PLANT CELL PHYSIOL, V56, P2381, DOI 10.1093/pcp/pcv162
   Xiong LM, 2003, PLANT PHYSIOL, V133, P29, DOI 10.1104/pp.103.025395
   Xu XM, 2007, PLANT CELL, V19, P1537, DOI 10.1105/tpc.106.049239
   Yoo CY, 2006, PLANT PHYSIOL, V142, P1548, DOI 10.1104/pp.106.088831
   Zhang SC, 2013, J INTEGR PLANT BIOL, V55, P83, DOI 10.1111/jipb.12024
   Zhang SC, 2010, PLANT SIGNAL BEHAV, V5, P53, DOI 10.4161/psb.5.1.10158
   Zhang S, 2017, J INTEGR PLANT BIOL, V59, P102, DOI 10.1111/jipb.12514
   Zhao FY, 2006, MOL BREEDING, V17, P341, DOI 10.1007/s11032-006-9005-6
   Zurbriggen MD, 2009, PLANT J, V60, P962, DOI 10.1111/j.1365-313X.2009.04010.x
NR 73
TC 1
Z9 1
U1 1
U2 8
PU PUBLIC LIBRARY SCIENCE
PI SAN FRANCISCO
PA 1160 BATTERY STREET, STE 100, SAN FRANCISCO, CA 94111 USA
SN 1932-6203
J9 PLOS ONE
JI PLoS One
PD AUG 9
PY 2018
VL 13
IS 8
AR e0201716
DI 10.1371/journal.pone.0201716
PG 27
WC Multidisciplinary Sciences
SC Science & Technology - Other Topics
GA GP9JF
UT WOS:000441232600049
PM 30092010
OA DOAJ Gold, Green Published
DA 2019-07-16
ER

PT J
AU Pfannmuller, A
   Leufken, J
   Studt, L
   Michielse, CB
   Sieber, CMK
   Guidener, U
   Hawat, S
   Hippler, M
   Fufezan, C
   Tudzynski, B
AF Pfannmueller, Andreas
   Leufken, Johannes
   Studt, Lena
   Michielse, Caroline B.
   Sieber, Christian M. K.
   Gueidener, Ulrich
   Hawat, Susan
   Hippler, Michael
   Fufezan, Christian
   Tudzynski, Bettina
TI Comparative transcriptome and proteome analysis reveals a global impact
   of the nitrogen regulators AreA and AreB on secondary metabolism in
   Fusarium fujikuroi
SO PLOS ONE
LA English
DT Article
ID GATA FACTOR AREA; GIBBERELLIN BIOSYNTHETIC-PATHWAY; TANDEM MASS-SPECTRA;
   IN-VIVO BINDING; ASPERGILLUS-NIDULANS; GENE-CLUSTER;
   SACCHAROMYCES-CEREVISIAE; ZINC-FINGER; PENICILLIUM-CHRYSOGENUM; HISTONE
   ACETYLATION
AB The biosynthesis of multiple secondary metabolites in the phytopathogenic ascomycete Fusarium fujikuroi is strongly affected by nitrogen availability. Here, we present the first genome-wide transcriptome and proteome analysis that compared the wild type and deletion mutants of the two major nitrogen regulators AreA and AreB. We show that AreB acts not simply as an antagonist of AreA counteracting the expression of AreA target genes as suggested based on the yeast model. Both GATA transcription factors affect a large and diverse set of common as well as specific target genes and proteins, acting as activators and repressors. We demonstrate that AreA and AreB are not only involved in fungal nitrogen metabolism, but also in the control of several complex cellular processes like carbon metabolism, transport and secondary metabolism. We show that both GATA transcription factors can be considered as master regulators of secondary metabolism as they affect the expression of more than half of the 47 putative secondary metabolite clusters identified in the genome of F. fujikuroi. While AreA acts as a positive regulator of many clusters under nitrogen-limiting conditions, AreB is able to activate and repress gene clusters (e.g. bikaverin) under nitrogen limitation and sufficiency. In addition, ChIP analyses revealed that loss of AreA or AreB causes histone modifications at some of the regulated gene clusters.
C1 [Pfannmueller, Andreas; Studt, Lena; Michielse, Caroline B.; Tudzynski, Bettina] Wesffalische Wilhelms Univ Munster, Inst Biol & Biotechnol Plants, Mol Biol & Biotechnol Fungi, Munster, Germany.
   [Leufken, Johannes; Fufezan, Christian] Wesffalische Wilhelms Univ Munster, Inst Biol & Biotechnol Plants, Computat Biol, Munster, Germany.
   [Studt, Lena] BOKU Univ Nat Resources & Life Sci, Div Microbial Genet & Pathogen Interact, Dept Appl Genet & Cell Biol, Campus Tulin, Vienna, Austria.
   [Sieber, Christian M. K.; Gueidener, Ulrich] German Res Ctr Environm Hlth GmbH, Helmholtz Zentrum Munchen, Inst Bioinformat & Syst Biol, Neuherberg, Germany.
   [Gueidener, Ulrich] Tech Univ Munich, Dept Genome Oriented Bioinformat, Wissensch Zentrum Weihenstephan, Freising Weihenstephan, Germany.
   [Hawat, Susan; Hippler, Michael] Wesffalische Wilhelms Univ Munster, Inst Biol & Biotechnol Plants, Plant Biochem & Biotechnol, Munster, Germany.
   [Michielse, Caroline B.] DuPont Ind Biosci, Wageningen, Netherlands.
   [Sieber, Christian M. K.] US DOE, Joint Genome Inst, Walnut Creek, CA USA.
RP Tudzynski, B (reprint author), Wesffalische Wilhelms Univ Munster, Inst Biol & Biotechnol Plants, Mol Biol & Biotechnol Fungi, Munster, Germany.
EM Bettina.Tudzynski@uni-muenster.de
RI Guldener, Ulrich/G-5227-2012
OI Guldener, Ulrich/0000-0001-5052-8610; Leufken,
   Johannes/0000-0001-6343-2431; Sieber, Christian/0000-0002-9560-0281
FU Deutsche Forschungsgemeinschaft [TU101/12-2]
FX This project was funded by the Deutsche Forschungsgemeinschaft
   (www.dfg.de), Grant Number TU101/12-2, BT. The funder had no role in
   study design, data collection and analysis, decision to publish, or
   preparation of the manuscript.
CR ARST HN, 1973, MOL GEN GENET, V126, P111, DOI 10.1007/BF00330988
   Bald T, 2012, BIOINFORMATICS, V28, P1052, DOI 10.1093/bioinformatics/bts066
   Barth J, 2014, MOL CELL PROTEOMICS, V13, P969, DOI 10.1074/mcp.M113.032771
   Berger H, 2006, MOL MICROBIOL, V59, P433, DOI 10.1111/j.1365-2958.2005.04957.x
   Berger H, 2008, MOL MICROBIOL, V69, P1385, DOI 10.1111/j.1365-2958.2008.06359.x
   Bergner SV, 2015, PLANT PHYSIOL, V168, P615, DOI 10.1104/pp.15.00072
   Bibbins M, 2002, MOL GENET GENOMICS, V267, P498, DOI 10.1007/s00438-002-0682-5
   Bomke C, 2009, PHYTOCHEMISTRY, V70, P1876, DOI 10.1016/j.phytochem.2009.05.020
   Caddick MX, 1998, J BACTERIOL, V180, P5762
   CHURCH GM, 1984, P NATL ACAD SCI-BIOL, V81, P1991, DOI 10.1073/pnas.81.7.1991
   Colot HV, 2006, P NATL ACAD SCI USA, V103, P10352, DOI 10.1073/pnas.0601456103
   Conlon H, 2001, MOL MICROBIOL, V40, P361, DOI 10.1046/j.1365-2958.2001.02399.x
   Craig R, 2004, BIOINFORMATICS, V20, P1466, DOI 10.1093/bioinformatics/bth092
   Davis MA, 1996, J BACTERIOL, V178, P3406, DOI 10.1128/jb.178.11.3406-3409.1996
   Desjardins AE, 1997, APPL ENVIRON MICROB, V63, P1838
   Deutsch E, 2008, PROTEOMICS, V8, P2776, DOI 10.1002/pmic.200890049
   Dzikowska A, 2003, FUNGAL GENET BIOL, V38, P175, DOI 10.1016/S1087-1845(02)00522-4
   Fisher RA, 1922, J R STAT SOC, V85, P87, DOI 10.2307/2340521
   FU YH, 1990, MOL MICROBIOL, V4, P1847, DOI 10.1111/j.1365-2958.1990.tb02033.x
   Gacek-Matthews A, 2015, MOL MICROBIOL, V96, P839, DOI 10.1111/mmi.12977
   Geer LY, 2004, J PROTEOME RES, V3, P958, DOI 10.1021/pr0499491
   GEISSMAN TA, 1966, PHYTOCHEMISTRY, V5, P933, DOI 10.1016/S0031-9422(00)82790-9
   Georis I, 2009, GENETICS, V181, P861, DOI 10.1534/genetics.108.099051
   Giese H, 2013, FUNGAL BIOL-UK, V117, P814, DOI 10.1016/j.funbio.2013.10.006
   Haas H, 1997, J BIOL CHEM, V272, P22576, DOI 10.1074/jbc.272.36.22576
   HAAS H, 1995, CURR GENET, V28, P177, DOI 10.1007/BF00315785
   Hohner R, 2013, MOL CELL PROTEOMICS, V12, P2774, DOI 10.1074/mcp.M113.029991
   Kall L, 2008, J PROTEOME RES, V7, P29, DOI 10.1021/pr700600n
   Kall L, 2007, NAT METHODS, V4, P923, DOI 10.1038/NMETH1113
   Kalli A, 2012, PROTEOMICS, V12, P21, DOI 10.1002/pmic.201100464
   Kessner D, 2008, BIOINFORMATICS, V24, P2534, DOI 10.1093/bioinformatics/btn323
   Kim S, 2010, MOL CELL PROTEOMICS, V9, P2840, DOI 10.1074/mcp.M110.003731
   Kouzminova E, 2001, EMBO J, V20, P4309, DOI 10.1093/emboj/20.15.4309
   Krappmann S, 2005, MED MYCOL, V43, pS31, DOI 10.1080/13693780400024271
   Kremer LPM, 2016, J PROTEOME RES, V15, P788, DOI 10.1021/acs.jproteome.5b00860
   KUDLA B, 1990, EMBO J, V9, P1355, DOI 10.1002/j.1460-2075.1990.tb08250.x
   Kukuczka B, 2014, PLANT PHYSIOL, V165, P1604, DOI 10.1104/pp.114.240648
   Kurat CF, 2014, P NATL ACAD SCI USA, V111, P14124, DOI 10.1073/pnas.1414024111
   Kurosawa E., 1926, NAT HIST SOC FORMOSA, V16, P213
   Le Roch KG, 2004, GENOME RES, V14, P2308, DOI 10.1101/gr.2523904
   Legube G, 2003, EMBO REP, V4, P944, DOI 10.1038/sj.embor.embor941
   Letting DL, 2003, MOL CELL BIOL, V23, P1334, DOI 10.1128/MCB.23.4.1334-1340.2003
   Li JY, 2013, FUNGAL GENET BIOL, V61, P69, DOI 10.1016/j.fgb.2013.10.006
   Lopez-Berges MS, 2014, FUNGAL GENET BIOL, V62, P78, DOI 10.1016/j.fgb.2013.11.002
   Macios M, 2012, FUNGAL GENET BIOL, V49, P189, DOI 10.1016/j.fgb.2012.01.004
   Magasanik B, 2002, GENE, V290, P1, DOI 10.1016/S0378-1119(02)00558-9
   Marroquin-Guzman M, 2015, PLOS PATHOG, V11, DOI 10.1371/journal.ppat.1004851
   Martens L, 2011, MOL CELL PROTEOMICS, V10, DOI 10.1074/mcp.R110.000133
   Marzluf GA, 1997, MICROBIOL MOL BIOL R, V61, P17
   Ment D, 2015, MOL PLANT MICROBE IN, V28, P154, DOI 10.1094/MPMI-09-14-0252-R
   MERIKA M, 1993, MOL CELL BIOL, V13, P3999, DOI 10.1128/MCB.13.7.3999
   Michielse CB, 2014, MOL MICROBIOL, V91, P472, DOI 10.1111/mmi.12472
   Min K, 2012, FEMS MICROBIOL LETT, V334, P66, DOI 10.1111/j.1574-6968.2012.02620.x
   Muro-Pastor MI, 2004, EUKARYOT CELL, V3, P393, DOI 10.1128/EC.3.2.393-405.2004
   Muro-Pastor MI, 1999, EMBO J, V18, P1584, DOI 10.1093/emboj/18.6.1584
   Narendja F, 2002, MOL MICROBIOL, V44, P573, DOI 10.1046/j.1365-2958.2002.02911.x
   Nazari F, 2015, IRAN J PHARM RES, V14, P505
   Niehaus EM, 2016, ENVIRON MICROBIOL, V18, P4282, DOI 10.1111/1462-2920.13576
   Niehaus EM, 2014, PLOS ONE, V9, DOI 10.1371/journal.pone.0103336
   Niehaus EM, 2014, APPL MICROBIOL BIOT, V98, P1749, DOI 10.1007/s00253-013-5453-1
   Niehaus EM, 2013, CHEM BIOL, V20, P1055, DOI 10.1016/j.chembiol.2013.07.004
   Poggeler S, 2003, CURR GENET, V43, P54, DOI 10.1007/s00294-003-0370-y
   PONTECORVO G, 1953, ADV GENET, V5, P141, DOI 10.1016/S0065-2660(08)60408-3
   Proctor RH, 1999, FUNGAL GENET BIOL, V27, P100, DOI 10.1006/fgbi.1999.1141
   Ravagnani A, 1997, EMBO J, V16, P3974, DOI 10.1093/emboj/16.13.3974
   Rosler SM, 2016, APPL MICROBIOL BIOT, V100, P5869, DOI 10.1007/s00253-016-7426-7
   Ruepp A, 2004, NUCLEIC ACIDS RES, V32, P5539, DOI 10.1093/nar/gkh894
   Sambrook J, 1989, MOL CLONING LAB MANU
   Schumacher J, 2012, FUNGAL GENET BIOL, V49, P483, DOI 10.1016/j.fgb.2012.03.005
   Seo JA, 2001, FUNGAL GENET BIOL, V34, P155, DOI 10.1006/fgbi.2001.1299
   Small AJ, 2001, MOL GENET GENOMICS, V265, P636, DOI 10.1007/s004380100456
   Staben C, 1989, FUNGAL GENET NEWSL, V36, P79
   Studt L, 2016, ENVIRON MICROBIOL, V18, P936, DOI 10.1111/1462-2920.13150
   Studt L, 2012, APPL ENVIRON MICROB, V78, P4468, DOI 10.1128/AEM.00823-12
   Sun S.K., 1981, FUSARIUM DIS BIOL TA, P104
   Todd RB, 2005, EUKARYOT CELL, V4, P1646, DOI 10.1128/EC.4.10.1646-1653.2005
   Tudzynski B, 1996, MICROBIOL-UK, V142, P533, DOI 10.1099/13500872-142-3-533
   Tudzynski B, 1998, FUNGAL GENET BIOL, V25, P157, DOI 10.1006/fgbi.1998.1095
   Tudzynski B, 2014, FRONT MICROBIOL, V5, DOI 10.3389/fmicb.2014.00656
   Vogel C, 2012, NAT REV GENET, V13, P227, DOI 10.1038/nrg3185
   Wiemann P, 2013, PLOS PATHOG, V9, DOI 10.1371/journal.ppat.1003475
   Wiemann P, 2012, PLOS ONE, V7, DOI 10.1371/journal.pone.0037519
   Wiemann P, 2009, MOL MICROBIOL, V72, P931, DOI 10.1111/j.1365-2958.2009.06695.x
   WINSTON F, 1995, YEAST, V11, P53, DOI 10.1002/yea.320110107
   Wisniewski JR, 2011, ANAL BIOCHEM, V410, P307, DOI 10.1016/j.ab.2010.12.004
   Wong KH, 2008, EUKARYOT CELL, V7, P917, DOI 10.1128/EC.00076-08
   Wong KH, 2009, MICROBIOL-SGM, V155, P3868, DOI 10.1099/mic.0.031252-0
   YABUTA T, 1935, AGR HORTIC, V10, P17
   Yates F, 1934, J AM STAT ASSOC, V29, P51, DOI 10.2307/2278459
NR 89
TC 7
Z9 9
U1 2
U2 11
PU PUBLIC LIBRARY SCIENCE
PI SAN FRANCISCO
PA 1160 BATTERY STREET, STE 100, SAN FRANCISCO, CA 94111 USA
SN 1932-6203
J9 PLOS ONE
JI PLoS One
PD APR 25
PY 2017
VL 12
IS 4
AR e0176194
DI 10.1371/journal.pone.0176194
PG 27
WC Multidisciplinary Sciences
SC Science & Technology - Other Topics
GA ET5FE
UT WOS:000400308800032
PM 28441411
OA DOAJ Gold, Green Published
DA 2019-07-16
ER

PT J
AU Bevacqua, RJ
   Fernandez-Martin, R
   Canel, NG
   Gibbons, A
   Texeira, D
   Lange, F
   Landschoot, GV
   Savy, V
   Briski, O
   Hiriart, MI
   Grueso, E
   Ivics, Z
   Taboga, O
   Kues, WA
   Ferraris, S
   Salamone, DF
AF Bevacqua, R. J.
   Fernandez-Martin, R.
   Canel, N. G.
   Gibbons, A.
   Texeira, D.
   Lange, F.
   Vans Landschoot, G.
   Savy, V.
   Briski, O.
   Hiriart, M. I.
   Grueso, E.
   Ivics, Z.
   Taboga, O.
   Kues, W. A.
   Ferraris, S.
   Salamone, D. F.
TI Assessing Tn5 and Sleeping Beauty for transpositional transgenesis by
   cytoplasmic injection into bovine and ovine zygotes
SO PLOS ONE
LA English
DT Article
ID HUMAN POLYCLONAL ANTIBODIES; FETAL FIBROBLASTS; NUCLEAR TRANSFER;
   GENE-TRANSFER; HUMAN-CELLS; FACTOR IX; IN-VITRO; EMBRYOS; TRANSPOSASE;
   EXPRESSION
AB Transgenic domestic animals represent an alternative to bioreactors for large-scale production of biopharmaceuticals and could also provide more accurate biomedical models than rodents. However, their generation remains inefficient. Recently, DNA transposons allowed improved transgenesis efficiencies in mice and pigs. In this work, Tn5 and Sleeping Beauty (SB) transposon systems were evaluated for transgenesis by simple cytoplasmic injection in livestock zygotes. In the case of Tn5, the transposome complex of transposon nucleic acid and Tn5 protein was injected. In the case of SB, the supercoiled plasmids encoding a transposon and the SB transposase were co-injected. In vitro produced bovine zygotes were used to establish the cytoplasmic injection conditions. The in vitro cultured blastocysts were evaluated for reporter gene expression and genotyped. Subsequently, both transposon systems were injected in seasonally available ovine zygotes, employing transposons carrying the recombinant human factor IX driven by the beta-lactoglobulin promoter. The Tn5 approach did not result in transgenic lambs. In contrast, the Sleeping Beauty injection resulted in 2 lambs (29%) carrying the transgene. Both animals exhibited cellular mosaicism of the transgene. The extraembryonic tissues (placenta or umbilical cord) of three additional animals were also transgenic. These results show that transpositional transgenesis by cytoplasmic injection of SB transposon components can be applied for the production of transgenic lambs of pharmaceutical interest.
C1 [Bevacqua, R. J.; Fernandez-Martin, R.; Canel, N. G.; Vans Landschoot, G.; Savy, V.; Briski, O.; Hiriart, M. I.; Salamone, D. F.] Univ Buenos Aires, Anim Biotechnol Lab, Fac Agron, INPA,CONICET, Buenos Aires, DF, Argentina.
   [Gibbons, A.] INTA, Expt Stn Bariloche, San Carlos De Bariloche, Rio Negro, Argentina.
   [Texeira, D.] Univ Estadual Ceara, Lab Fisiol & Controle Reprod, FAVET, Fortaleza, Ceara, Brazil.
   [Lange, F.; Vans Landschoot, G.; Ferraris, S.] Maimonides Univ, Cloning & Transgenesis Lab, Buenos Aires, DF, Argentina.
   [Grueso, E.; Ivics, Z.] Paul Ehrlich Inst, Langen, Germany.
   [Taboga, O.] INTA Castelar, CICVyA Biotechnol Inst, Buenos Aires, DF, Argentina.
   [Kues, W. A.] Friedrich Loeffler Inst, Neustadt, Germany.
RP Salamone, DF (reprint author), Univ Buenos Aires, Anim Biotechnol Lab, Fac Agron, INPA,CONICET, Buenos Aires, DF, Argentina.
EM salamone@agro.uba.ar
RI Salamone, Daniel F/G-1096-2019
OI Salamone, Daniel F/0000-0003-0858-0313
FU Agencia Nacional de Promocion Cientifica y Tecnologica [PICT-2013-2375]
FX This work was supported by Grant: Agencia Nacional de Promocion
   Cientifica y Tecnologica PICT-2013-2375 received by Daniel Salamone
   (DS); http://www.agencia.mincyt.gob.ar/. The funder had no role in study
   design, data collection and analysis, decision to publish, or
   preparation of the manuscript.
CR Bevacqua RJ, 2013, THERIOGENOLOGY, V80, P104, DOI 10.1016/j.theriogenology.2013.03.017
   Bevacqua RJ, 2012, THERIOGENOLOGY, V78, P57, DOI 10.1016/j.theriogenology.2012.01.020
   Bevacqua RJ, 2010, THERIOGENOLOGY, V74, P922, DOI 10.1016/j.theriogenology.2010.04.017
   BRACKETT BG, 1975, BIOL REPROD, V12, P260, DOI 10.1095/biolreprod12.2.260
   Carlson DF, 2011, TRANSGENIC RES, V20, P29, DOI 10.1007/s11248-010-9386-5
   CHURCH GM, 1984, P NATL ACAD SCI-BIOL, V81, P1991, DOI 10.1073/pnas.81.7.1991
   Cibelli JB, 1998, SCIENCE, V280, P1256, DOI 10.1126/science.280.5367.1256
   Cueto MI, 2011, REPROD DOMEST ANIM, V46, P770, DOI 10.1111/j.1439-0531.2010.01738.x
   Cunningham F, 2015, NUCLEIC ACIDS RES, V43, pD662, DOI 10.1093/nar/gku1010
   Davies DR, 2000, SCIENCE, V289, P77, DOI 10.1126/science.289.5476.77
   Dupuy AJ, 2002, P NATL ACAD SCI USA, V99, P4495, DOI 10.1073/pnas.062630599
   Dyck MK, 2003, TRENDS BIOTECHNOL, V21, P394, DOI 10.1016/S0167-7799(03)00190-2
   Garrels W, 2011, PLOS ONE, V6
   Garrels W, 2014, REPROD FERT DEVELOP, V27, P266
   Gomez MC, 1998, THERIOGENOLOGY, V49, P1143, DOI 10.1016/S0093-691X(98)00062-4
   GORDON JW, 1980, P NATL ACAD SCI-BIOL, V77, P7380, DOI 10.1073/pnas.77.12.7380
   Goryshin IY, 1998, P NATL ACAD SCI USA, V95, P10716, DOI 10.1073/pnas.95.18.10716
   Goryshin IY, 2003, GENOME RES, V13, P644, DOI 10.1101/gr.611403
   Goryshin IY, 2000, NAT BIOTECHNOL, V18, P97
   GOSSLER A, 1986, P NATL ACAD SCI USA, V83, P9065, DOI 10.1073/pnas.83.23.9065
   Grabundzija I, 2010, MOL THER, V18, P1200, DOI 10.1038/mt.2010.47
   Habermann FA, 2007, THERIOGENOLOGY, V68, pS116, DOI 10.1016/j.theriogenology.2007.05.055
   Hackett CS, 2007, GENOME BIOL, V8, DOI 10.1186/gb-2007-8-S1-S12
   HAMMER RE, 1985, NATURE, V315, P680, DOI 10.1038/315680a0
   Henikoff S, 1998, CELL, V93, P329, DOI 10.1016/S0092-8674(00)81161-7
   Houdebine LM, 2009, COMP IMMUNOL MICROB, V32, P107, DOI 10.1016/j.cimid.2007.11.005
   IKAWA M, 1995, FEBS LETT, V375, P125, DOI 10.1016/0014-5793(95)01162-8
   Iqbal K, 2009, BIOTECHNIQUES, V47, P959, DOI 10.2144/000113270
   Ivics Z, 1997, CELL, V91, P501, DOI 10.1016/S0092-8674(00)80436-5
   Jacobsen JC, 2010, HUM MOL GENET, V19, P1873, DOI 10.1093/hmg/ddq063
   Jakobsen JE, 2011, TRANSGENIC RES, V20, P533, DOI 10.1007/s11248-010-9438-x
   Kues WA, 2006, FASEB J, V20, P1200, DOI 10.1096/fj.05-5415fje
   Kuroiwa Y, 2002, GENE THER, V9, P708, DOI 10.1038/sj.gt.3301754
   Kuroiwa Y, 2009, NAT BIOTECHNOL, V27, P173, DOI 10.1038/nbt.1521
   Lois C, 2002, SCIENCE, V295, P868, DOI 10.1126/science.1067081
   Marh J, 2012, P NATL ACAD SCI USA, V109, P19184, DOI 10.1073/pnas.1216473109
   Mates L, 2007, GENOME BIOL, V8, DOI 10.1186/gb-2007-8-S1-S1
   Mates L, 2009, NAT GENET, V41, P753, DOI 10.1038/ng.343
   MAXWELL WMC, 1984, J AGR SCI, V102, P233, DOI 10.1017/S002185960004168X
   Meissner A, 2006, DEV DYNAM, V235, P2460, DOI 10.1002/dvdy.20915
   Memili E, 1999, BIOL REPROD, V61, P1198, DOI 10.1095/biolreprod61.5.1198
   Naumann TA, 2002, J BACTERIOL, V184, P233, DOI 10.1128/JB.184.1.233-240.2002
   Naumann TA, 2002, J BIOL CHEM, V277, P17623, DOI 10.1074/jbc.M200742200
   Nowak-Imialek M, 2013, REPROD FERT DEVELOP, V25, P103, DOI 10.1071/RD12265
   Nowak-Imialek M, 2011, STEM CELLS DEV, V20, P1564, DOI 10.1089/scd.2010.0399
   Pereyra-Bonnet F, 2008, REPROD FERT DEVELOP, V20, P741, DOI 10.1071/RD07172
   Pereyra-Bonnet F, 2009, REPROD FERT DEVELOP, V21, P250, DOI 10.1071/RDv21n1Ab307
   Pereyra-Bonnet F, 2011, TRANSGENIC RES, V20, P1379, DOI 10.1007/s11248-011-9503-0
   Robl JM, 2007, CLONING STEM CELLS, V9, P12, DOI 10.1089/clo.2006.0083
   Rossant J, 2011, P NATL ACAD SCI USA, V108, P7659, DOI 10.1073/pnas.1104844108
   Rostovskaya M, 2012, NUCLEIC ACIDS RES, V40, DOI 10.1093/nar/gks643
   Santos C, 2006, J BIOTECHNOL, V124, P469
   SAS Institute Inc. SAS/STAT, 1989, US GUID VERS 6, V1, P943
   Schnieke AE, 1997, SCIENCE, V278, P2130, DOI 10.1126/science.278.5346.2130
   Suganuma R, 2005, BIOL REPROD, V73, P1157, DOI 10.1095/biolreprod.105.044669
   TERVIT HR, 1972, J REPROD FERTIL, V30, P493
   Van Thuan N, 2010, J REPROD DEVELOP, V56, P20, DOI 10.1262/jrd.09-221A
   Yant SR, 2005, MOL CELL BIOL, V25, P2085, DOI 10.1128/MCB.25.6.2085-2094.2005
   Yekta AA, 2013, TRANSGENIC RES, V22, P131, DOI 10.1007/s11248-012-9634-y
NR 59
TC 3
Z9 3
U1 0
U2 6
PU PUBLIC LIBRARY SCIENCE
PI SAN FRANCISCO
PA 1160 BATTERY STREET, STE 100, SAN FRANCISCO, CA 94111 USA
SN 1932-6203
J9 PLOS ONE
JI PLoS One
PD MAR 16
PY 2017
VL 12
IS 3
AR e0174025
DI 10.1371/journal.pone.0174025
PG 16
WC Multidisciplinary Sciences
SC Science & Technology - Other Topics
GA EN9KE
UT WOS:000396318300114
PM 28301581
OA DOAJ Gold, Green Published
DA 2019-07-16
ER

PT J
AU Weber, L
   Thoelken, C
   Volk, M
   Remes, B
   Lechner, M
   Klug, G
AF Weber, Lennart
   Thoelken, Clemens
   Volk, Marcel
   Remes, Bernhard
   Lechner, Marcus
   Klug, Gabriele
TI The Conserved Dcw Gene Cluster of R. sphaeroides Is Preceded by an
   Uncommonly Extended 5' Leader Featuring the sRNA UpsM
SO PLOS ONE
LA English
DT Article
ID CELL-ENVELOPE BIOSYNTHESIS; REGULATORY SMALL RNAS; ESCHERICHIA-COLI;
   RHODOBACTER-SPHAEROIDES; MESSENGER-RNA; PHOTOOXIDATIVE STRESS;
   RIBONUCLEIC-ACID; DIVISION GENES; SINGLET OXYGEN; E. COLI